/*---------------------------------------------------------------------------*\
| =========                 |                                                 |
| \\      /  F ield         | OpenFOAM: The Open Source CFD Toolbox           |
|  \\    /   O peration     | Version:  2.4.0                                 |
|   \\  /    A nd           | Web:      www.OpenFOAM.org                      |
|    \\/     M anipulation  |                                                 |
\*---------------------------------------------------------------------------*/
Build  : 2.4.0-dcea1e13ff76
Exec   : reconstructPar
Date   : May 02 2023
Time   : 17:27:36
Host   : "spartan-bm085.hpc.unimelb.edu.au"
PID    : 20337
Case   : /data/scratch/projects/punim0394/PERIODICHILL/03_Simulation/PH_2D_RANS_kOmegaSSTx_baseline_pimpleURANS
nProcs : 1
sigFpe : Enabling floating point exception trapping (FOAM_SIGFPE).
fileModificationChecking : Monitoring run-time modified files using timeStampMaster
allowSystemOperations : Allowing user-supplied system call operations

// * * * * * * * * * * * * * * * * * * * * * * * * * * * * * * * * * * * * * //
Create time

--> FOAM Warning : 
    From function dlOpen(const fileName&, const bool)
    in file POSIX.C at line 1179
    dlopen error : ./lib/kOmegaSSTx.so: cannot open shared object file: No such file or directory
--> FOAM Warning : 
    From function dlLibraryTable::open(const fileName&, const bool)
    in file db/dynamicLibrary/dlLibraryTable/dlLibraryTable.C at line 99
    could not load "./lib/kOmegaSSTx.so"
--> FOAM Warning : 
    From function dlOpen(const fileName&, const bool)
    in file POSIX.C at line 1179
    dlopen error : ./lib/kOmegaSSTx.so: cannot open shared object file: No such file or directory
--> FOAM Warning : 
    From function dlLibraryTable::open(const fileName&, const bool)
    in file db/dynamicLibrary/dlLibraryTable/dlLibraryTable.C at line 99
    could not load "./lib/kOmegaSSTx.so"
--> FOAM Warning : 
    From function dlOpen(const fileName&, const bool)
    in file POSIX.C at line 1179
    dlopen error : ./lib/kOmegaSSTx.so: cannot open shared object file: No such file or directory
--> FOAM Warning : 
    From function dlLibraryTable::open(const fileName&, const bool)
    in file db/dynamicLibrary/dlLibraryTable/dlLibraryTable.C at line 99
    could not load "./lib/kOmegaSSTx.so"
--> FOAM Warning : 
    From function dlOpen(const fileName&, const bool)
    in file POSIX.C at line 1179
    dlopen error : ./lib/kOmegaSSTx.so: cannot open shared object file: No such file or directory
--> FOAM Warning : 
    From function dlLibraryTable::open(const fileName&, const bool)
    in file db/dynamicLibrary/dlLibraryTable/dlLibraryTable.C at line 99
    could not load "./lib/kOmegaSSTx.so"
--> FOAM Warning : 
    From function dlOpen(const fileName&, const bool)
    in file POSIX.C at line 1179
    dlopen error : ./lib/kOmegaSSTx.so: cannot open shared object file: No such file or directory
--> FOAM Warning : 
    From function dlLibraryTable::open(const fileName&, const bool)
    in file db/dynamicLibrary/dlLibraryTable/dlLibraryTable.C at line 99
    could not load "./lib/kOmegaSSTx.so"


Reconstructing fields for mesh region0

Time = 1

Reconstructing FV fields

    Reconstructing volScalarFields

        p
        nut
        k
        omega

    Reconstructing volVectorFields

        U

    Reconstructing surfaceScalarFields

        phi

Reconstructing point fields

No point fields

No lagrangian fields

Reconstructing sets:
Time = 2

Reconstructing FV fields

    Reconstructing volScalarFields

        p
        nut
        k
        omega

    Reconstructing volVectorFields

        U

    Reconstructing surfaceScalarFields

        phi

Reconstructing point fields

No point fields

No lagrangian fields

Reconstructing sets:
Time = 3

Reconstructing FV fields

    Reconstructing volScalarFields

        p
        nut
        k
        omega

    Reconstructing volVectorFields

        U

    Reconstructing surfaceScalarFields

        phi

Reconstructing point fields

No point fields

No lagrangian fields

Reconstructing sets:
Time = 4

Reconstructing FV fields

    Reconstructing volScalarFields

        p
        nut
        k
        omega

    Reconstructing volVectorFields

        U

    Reconstructing surfaceScalarFields

        phi

Reconstructing point fields

No point fields

No lagrangian fields

Reconstructing sets:
Time = 5

Reconstructing FV fields

    Reconstructing volScalarFields

        p
        nut
        k
        omega

    Reconstructing volVectorFields

        U

    Reconstructing surfaceScalarFields

        phi

Reconstructing point fields

No point fields

No lagrangian fields

Reconstructing sets:
Time = 6

Reconstructing FV fields

    Reconstructing volScalarFields

        p
        nut
        k
        omega

    Reconstructing volVectorFields

        U

    Reconstructing surfaceScalarFields

        phi

Reconstructing point fields

No point fields

No lagrangian fields

Reconstructing sets:
Time = 7

Reconstructing FV fields

    Reconstructing volScalarFields

        p
        nut
        k
        omega

    Reconstructing volVectorFields

        U

    Reconstructing surfaceScalarFields

        phi

Reconstructing point fields

No point fields

No lagrangian fields

Reconstructing sets:
Time = 8

Reconstructing FV fields

    Reconstructing volScalarFields

        p
        nut
        k
        omega

    Reconstructing volVectorFields

        U

    Reconstructing surfaceScalarFields

        phi

Reconstructing point fields

No point fields

No lagrangian fields

Reconstructing sets:
Time = 9

Reconstructing FV fields

    Reconstructing volScalarFields

        p
        nut
        k
        omega

    Reconstructing volVectorFields

        U

    Reconstructing surfaceScalarFields

        phi

Reconstructing point fields

No point fields

No lagrangian fields

Reconstructing sets:
Time = 10

Reconstructing FV fields

    Reconstructing volScalarFields

        p
        nut
        k
        omega

    Reconstructing volVectorFields

        U

    Reconstructing surfaceScalarFields

        phi

Reconstructing point fields

No point fields

No lagrangian fields

Reconstructing sets:
Time = 11

Reconstructing FV fields

    Reconstructing volScalarFields

        p
        nut
        k
        omega

    Reconstructing volVectorFields

        U

    Reconstructing surfaceScalarFields

        phi

Reconstructing point fields

No point fields

No lagrangian fields

Reconstructing sets:
Time = 12

Reconstructing FV fields

    Reconstructing volScalarFields

        p
        nut
        k
        omega

    Reconstructing volVectorFields

        U

    Reconstructing surfaceScalarFields

        phi

Reconstructing point fields

No point fields

No lagrangian fields

Reconstructing sets:
Time = 13

Reconstructing FV fields

    Reconstructing volScalarFields

        p
        nut
        k
        omega

    Reconstructing volVectorFields

        U

    Reconstructing surfaceScalarFields

        phi

Reconstructing point fields

No point fields

No lagrangian fields

Reconstructing sets:
Time = 14

Reconstructing FV fields

    Reconstructing volScalarFields

        p
        nut
        k
        omega

    Reconstructing volVectorFields

        U

    Reconstructing surfaceScalarFields

        phi

Reconstructing point fields

No point fields

No lagrangian fields

Reconstructing sets:
Time = 15

Reconstructing FV fields

    Reconstructing volScalarFields

        p
        nut
        k
        omega

    Reconstructing volVectorFields

        U

    Reconstructing surfaceScalarFields

        phi

Reconstructing point fields

No point fields

No lagrangian fields

Reconstructing sets:
Time = 16

Reconstructing FV fields

    Reconstructing volScalarFields

        p
        nut
        k
        omega

    Reconstructing volVectorFields

        U

    Reconstructing surfaceScalarFields

        phi

Reconstructing point fields

No point fields

No lagrangian fields

Reconstructing sets:
Time = 17

Reconstructing FV fields

    Reconstructing volScalarFields

        p
        nut
        k
        omega

    Reconstructing volVectorFields

        U

    Reconstructing surfaceScalarFields

        phi

Reconstructing point fields

No point fields

No lagrangian fields

Reconstructing sets:
Time = 18

Reconstructing FV fields

    Reconstructing volScalarFields

        p
        nut
        k
        omega

    Reconstructing volVectorFields

        U

    Reconstructing surfaceScalarFields

        phi

Reconstructing point fields

No point fields

No lagrangian fields

Reconstructing sets:
Time = 19

Reconstructing FV fields

    Reconstructing volScalarFields

        p
        nut
        k
        omega

    Reconstructing volVectorFields

        U

    Reconstructing surfaceScalarFields

        phi

Reconstructing point fields

No point fields

No lagrangian fields

Reconstructing sets:
Time = 20

Reconstructing FV fields

    Reconstructing volScalarFields

        p
        nut
        k
        omega

    Reconstructing volVectorFields

        U

    Reconstructing surfaceScalarFields

        phi

Reconstructing point fields

No point fields

No lagrangian fields

Reconstructing sets:
Time = 21

Reconstructing FV fields

    Reconstructing volScalarFields

        p
        nut
        k
        omega

    Reconstructing volVectorFields

        U

    Reconstructing surfaceScalarFields

        phi

Reconstructing point fields

No point fields

No lagrangian fields

Reconstructing sets:
Time = 22

Reconstructing FV fields

    Reconstructing volScalarFields

        p
        nut
        k
        omega

    Reconstructing volVectorFields

        U

    Reconstructing surfaceScalarFields

        phi

Reconstructing point fields

No point fields

No lagrangian fields

Reconstructing sets:
Time = 23

Reconstructing FV fields

    Reconstructing volScalarFields

        p
        nut
        k
        omega

    Reconstructing volVectorFields

        U

    Reconstructing surfaceScalarFields

        phi

Reconstructing point fields

No point fields

No lagrangian fields

Reconstructing sets:
Time = 24

Reconstructing FV fields

    Reconstructing volScalarFields

        p
        nut
        k
        omega

    Reconstructing volVectorFields

        U

    Reconstructing surfaceScalarFields

        phi

Reconstructing point fields

No point fields

No lagrangian fields

Reconstructing sets:
Time = 25

Reconstructing FV fields

    Reconstructing volScalarFields

        p
        nut
        k
        omega

    Reconstructing volVectorFields

        U

    Reconstructing surfaceScalarFields

        phi

Reconstructing point fields

No point fields

No lagrangian fields

Reconstructing sets:
Time = 26

Reconstructing FV fields

    Reconstructing volScalarFields

        p
        nut
        k
        omega

    Reconstructing volVectorFields

        U

    Reconstructing surfaceScalarFields

        phi

Reconstructing point fields

No point fields

No lagrangian fields

Reconstructing sets:
Time = 27

Reconstructing FV fields

    Reconstructing volScalarFields

        p
        nut
        k
        omega

    Reconstructing volVectorFields

        U

    Reconstructing surfaceScalarFields

        phi

Reconstructing point fields

No point fields

No lagrangian fields

Reconstructing sets:
Time = 28

Reconstructing FV fields

    Reconstructing volScalarFields

        p
        nut
        k
        omega

    Reconstructing volVectorFields

        U

    Reconstructing surfaceScalarFields

        phi

Reconstructing point fields

No point fields

No lagrangian fields

Reconstructing sets:
Time = 29

Reconstructing FV fields

    Reconstructing volScalarFields

        p
        nut
        k
        omega

    Reconstructing volVectorFields

        U

    Reconstructing surfaceScalarFields

        phi

Reconstructing point fields

No point fields

No lagrangian fields

Reconstructing sets:
Time = 30

Reconstructing FV fields

    Reconstructing volScalarFields

        p
        nut
        k
        omega

    Reconstructing volVectorFields

        U

    Reconstructing surfaceScalarFields

        phi

Reconstructing point fields

No point fields

No lagrangian fields

Reconstructing sets:
Time = 31

Reconstructing FV fields

    Reconstructing volScalarFields

        p
        nut
        k
        omega

    Reconstructing volVectorFields

        U

    Reconstructing surfaceScalarFields

        phi

Reconstructing point fields

No point fields

No lagrangian fields

Reconstructing sets:
Time = 32

Reconstructing FV fields

    Reconstructing volScalarFields

        p
        nut
        k
        omega

    Reconstructing volVectorFields

        U

    Reconstructing surfaceScalarFields

        phi

Reconstructing point fields

No point fields

No lagrangian fields

Reconstructing sets:
Time = 33

Reconstructing FV fields

    Reconstructing volScalarFields

        p
        nut
        k
        omega

    Reconstructing volVectorFields

        U

    Reconstructing surfaceScalarFields

        phi

Reconstructing point fields

No point fields

No lagrangian fields

Reconstructing sets:
Time = 34

Reconstructing FV fields

    Reconstructing volScalarFields

        p
        nut
        k
        omega

    Reconstructing volVectorFields

        U

    Reconstructing surfaceScalarFields

        phi

Reconstructing point fields

No point fields

No lagrangian fields

Reconstructing sets:
Time = 35

Reconstructing FV fields

    Reconstructing volScalarFields

        p
        nut
        k
        omega

    Reconstructing volVectorFields

        U

    Reconstructing surfaceScalarFields

        phi

Reconstructing point fields

No point fields

No lagrangian fields

Reconstructing sets:
Time = 36

Reconstructing FV fields

    Reconstructing volScalarFields

        p
        nut
        k
        omega

    Reconstructing volVectorFields

        U

    Reconstructing surfaceScalarFields

        phi

Reconstructing point fields

No point fields

No lagrangian fields

Reconstructing sets:
Time = 37

Reconstructing FV fields

    Reconstructing volScalarFields

        p
        nut
        k
        omega

    Reconstructing volVectorFields

        U

    Reconstructing surfaceScalarFields

        phi

Reconstructing point fields

No point fields

No lagrangian fields

Reconstructing sets:
Time = 38

Reconstructing FV fields

    Reconstructing volScalarFields

        p
        nut
        k
        omega

    Reconstructing volVectorFields

        U

    Reconstructing surfaceScalarFields

        phi

Reconstructing point fields

No point fields

No lagrangian fields

Reconstructing sets:
Time = 39

Reconstructing FV fields

    Reconstructing volScalarFields

        p
        nut
        k
        omega

    Reconstructing volVectorFields

        U

    Reconstructing surfaceScalarFields

        phi

Reconstructing point fields

No point fields

No lagrangian fields

Reconstructing sets:
Time = 40

Reconstructing FV fields

    Reconstructing volScalarFields

        p
        nut
        k
        omega

    Reconstructing volVectorFields

        U

    Reconstructing surfaceScalarFields

        phi

Reconstructing point fields

No point fields

No lagrangian fields

Reconstructing sets:
Time = 41

Reconstructing FV fields

    Reconstructing volScalarFields

        p
        nut
        k
        omega

    Reconstructing volVectorFields

        U

    Reconstructing surfaceScalarFields

        phi

Reconstructing point fields

No point fields

No lagrangian fields

Reconstructing sets:
Time = 42

Reconstructing FV fields

    Reconstructing volScalarFields

        p
        nut
        k
        omega

    Reconstructing volVectorFields

        U

    Reconstructing surfaceScalarFields

        phi

Reconstructing point fields

No point fields

No lagrangian fields

Reconstructing sets:
Time = 43

Reconstructing FV fields

    Reconstructing volScalarFields

        p
        nut
        k
        omega

    Reconstructing volVectorFields

        U

    Reconstructing surfaceScalarFields

        phi

Reconstructing point fields

No point fields

No lagrangian fields

Reconstructing sets:
Time = 44

Reconstructing FV fields

    Reconstructing volScalarFields

        p
        nut
        k
        omega

    Reconstructing volVectorFields

        U

    Reconstructing surfaceScalarFields

        phi

Reconstructing point fields

No point fields

No lagrangian fields

Reconstructing sets:
Time = 45

Reconstructing FV fields

    Reconstructing volScalarFields

        p
        nut
        k
        omega

    Reconstructing volVectorFields

        U

    Reconstructing surfaceScalarFields

        phi

Reconstructing point fields

No point fields

No lagrangian fields

Reconstructing sets:
Time = 46

Reconstructing FV fields

    Reconstructing volScalarFields

        p
        nut
        k
        omega

    Reconstructing volVectorFields

        U

    Reconstructing surfaceScalarFields

        phi

Reconstructing point fields

No point fields

No lagrangian fields

Reconstructing sets:
Time = 47

Reconstructing FV fields

    Reconstructing volScalarFields

        p
        nut
        k
        omega

    Reconstructing volVectorFields

        U

    Reconstructing surfaceScalarFields

        phi

Reconstructing point fields

No point fields

No lagrangian fields

Reconstructing sets:
Time = 48

Reconstructing FV fields

    Reconstructing volScalarFields

        p
        nut
        k
        omega

    Reconstructing volVectorFields

        U

    Reconstructing surfaceScalarFields

        phi

Reconstructing point fields

No point fields

No lagrangian fields

Reconstructing sets:
Time = 49

Reconstructing FV fields

    Reconstructing volScalarFields

        p
        nut
        k
        omega

    Reconstructing volVectorFields

        U

    Reconstructing surfaceScalarFields

        phi

Reconstructing point fields

No point fields

No lagrangian fields

Reconstructing sets:
Time = 50

Reconstructing FV fields

    Reconstructing volScalarFields

        p
        nut
        k
        omega

    Reconstructing volVectorFields

        U

    Reconstructing surfaceScalarFields

        phi

Reconstructing point fields

No point fields

No lagrangian fields

Reconstructing sets:
Time = 51

Reconstructing FV fields

    Reconstructing volScalarFields

        p
        nut
        k
        omega

    Reconstructing volVectorFields

        U

    Reconstructing surfaceScalarFields

        phi

Reconstructing point fields

No point fields

No lagrangian fields

Reconstructing sets:
Time = 52

Reconstructing FV fields

    Reconstructing volScalarFields

        p
        nut
        k
        omega

    Reconstructing volVectorFields

        U

    Reconstructing surfaceScalarFields

        phi

Reconstructing point fields

No point fields

No lagrangian fields

Reconstructing sets:
Time = 53

Reconstructing FV fields

    Reconstructing volScalarFields

        p
        nut
        k
        omega

    Reconstructing volVectorFields

        U

    Reconstructing surfaceScalarFields

        phi

Reconstructing point fields

No point fields

No lagrangian fields

Reconstructing sets:
Time = 54

Reconstructing FV fields

    Reconstructing volScalarFields

        p
        nut
        k
        omega

    Reconstructing volVectorFields

        U

    Reconstructing surfaceScalarFields

        phi

Reconstructing point fields

No point fields

No lagrangian fields

Reconstructing sets:
Time = 55

Reconstructing FV fields

    Reconstructing volScalarFields

        p
        nut
        k
        omega

    Reconstructing volVectorFields

        U

    Reconstructing surfaceScalarFields

        phi

Reconstructing point fields

No point fields

No lagrangian fields

Reconstructing sets:
Time = 56

Reconstructing FV fields

    Reconstructing volScalarFields

        p
        nut
        k
        omega

    Reconstructing volVectorFields

        U

    Reconstructing surfaceScalarFields

        phi

Reconstructing point fields

No point fields

No lagrangian fields

Reconstructing sets:
Time = 57

Reconstructing FV fields

    Reconstructing volScalarFields

        p
        nut
        k
        omega

    Reconstructing volVectorFields

        U

    Reconstructing surfaceScalarFields

        phi

Reconstructing point fields

No point fields

No lagrangian fields

Reconstructing sets:
Time = 58

Reconstructing FV fields

    Reconstructing volScalarFields

        p
        nut
        k
        omega

    Reconstructing volVectorFields

        U

    Reconstructing surfaceScalarFields

        phi

Reconstructing point fields

No point fields

No lagrangian fields

Reconstructing sets:
Time = 59

Reconstructing FV fields

    Reconstructing volScalarFields

        p
        nut
        k
        omega

    Reconstructing volVectorFields

        U

    Reconstructing surfaceScalarFields

        phi

Reconstructing point fields

No point fields

No lagrangian fields

Reconstructing sets:
Time = 60

Reconstructing FV fields

    Reconstructing volScalarFields

        p
        nut
        k
        omega

    Reconstructing volVectorFields

        U

    Reconstructing surfaceScalarFields

        phi

Reconstructing point fields

No point fields

No lagrangian fields

Reconstructing sets:
Time = 61

Reconstructing FV fields

    Reconstructing volScalarFields

        p
        nut
        k
        omega

    Reconstructing volVectorFields

        U

    Reconstructing surfaceScalarFields

        phi

Reconstructing point fields

No point fields

No lagrangian fields

Reconstructing sets:
Time = 62

Reconstructing FV fields

    Reconstructing volScalarFields

        p
        nut
        k
        omega

    Reconstructing volVectorFields

        U

    Reconstructing surfaceScalarFields

        phi

Reconstructing point fields

No point fields

No lagrangian fields

Reconstructing sets:
Time = 63

Reconstructing FV fields

    Reconstructing volScalarFields

        p
        nut
        k
        omega

    Reconstructing volVectorFields

        U

    Reconstructing surfaceScalarFields

        phi

Reconstructing point fields

No point fields

No lagrangian fields

Reconstructing sets:
Time = 64

Reconstructing FV fields

    Reconstructing volScalarFields

        p
        nut
        k
        omega

    Reconstructing volVectorFields

        U

    Reconstructing surfaceScalarFields

        phi

Reconstructing point fields

No point fields

No lagrangian fields

Reconstructing sets:
Time = 65

Reconstructing FV fields

    Reconstructing volScalarFields

        p
        nut
        k
        omega

    Reconstructing volVectorFields

        U

    Reconstructing surfaceScalarFields

        phi

Reconstructing point fields

No point fields

No lagrangian fields

Reconstructing sets:
Time = 66

Reconstructing FV fields

    Reconstructing volScalarFields

        p
        nut
        k
        omega

    Reconstructing volVectorFields

        U

    Reconstructing surfaceScalarFields

        phi

Reconstructing point fields

No point fields

No lagrangian fields

Reconstructing sets:
Time = 67

Reconstructing FV fields

    Reconstructing volScalarFields

        p
        nut
        k
        omega

    Reconstructing volVectorFields

        U

    Reconstructing surfaceScalarFields

        phi

Reconstructing point fields

No point fields

No lagrangian fields

Reconstructing sets:
Time = 68

Reconstructing FV fields

    Reconstructing volScalarFields

        p
        nut
        k
        omega

    Reconstructing volVectorFields

        U

    Reconstructing surfaceScalarFields

        phi

Reconstructing point fields

No point fields

No lagrangian fields

Reconstructing sets:
Time = 69

Reconstructing FV fields

    Reconstructing volScalarFields

        p
        nut
        k
        omega

    Reconstructing volVectorFields

        U

    Reconstructing surfaceScalarFields

        phi

Reconstructing point fields

No point fields

No lagrangian fields

Reconstructing sets:
Time = 70

Reconstructing FV fields

    Reconstructing volScalarFields

        p
        nut
        k
        omega

    Reconstructing volVectorFields

        U

    Reconstructing surfaceScalarFields

        phi

Reconstructing point fields

No point fields

No lagrangian fields

Reconstructing sets:
Time = 71

Reconstructing FV fields

    Reconstructing volScalarFields

        p
        nut
        k
        omega

    Reconstructing volVectorFields

        U

    Reconstructing surfaceScalarFields

        phi

Reconstructing point fields

No point fields

No lagrangian fields

Reconstructing sets:
Time = 72

Reconstructing FV fields

    Reconstructing volScalarFields

        p
        nut
        k
        omega

    Reconstructing volVectorFields

        U

    Reconstructing surfaceScalarFields

        phi

Reconstructing point fields

No point fields

No lagrangian fields

Reconstructing sets:
Time = 73

Reconstructing FV fields

    Reconstructing volScalarFields

        p
        nut
        k
        omega

    Reconstructing volVectorFields

        U

    Reconstructing surfaceScalarFields

        phi

Reconstructing point fields

No point fields

No lagrangian fields

Reconstructing sets:
Time = 74

Reconstructing FV fields

    Reconstructing volScalarFields

        p
        nut
        k
        omega

    Reconstructing volVectorFields

        U

    Reconstructing surfaceScalarFields

        phi

Reconstructing point fields

No point fields

No lagrangian fields

Reconstructing sets:
Time = 75

Reconstructing FV fields

    Reconstructing volScalarFields

        p
        nut
        k
        omega

    Reconstructing volVectorFields

        U

    Reconstructing surfaceScalarFields

        phi

Reconstructing point fields

No point fields

No lagrangian fields

Reconstructing sets:
Time = 76

Reconstructing FV fields

    Reconstructing volScalarFields

        p
        nut
        k
        omega

    Reconstructing volVectorFields

        U

    Reconstructing surfaceScalarFields

        phi

Reconstructing point fields

No point fields

No lagrangian fields

Reconstructing sets:
Time = 77

Reconstructing FV fields

    Reconstructing volScalarFields

        p
        nut
        k
        omega

    Reconstructing volVectorFields

        U

    Reconstructing surfaceScalarFields

        phi

Reconstructing point fields

No point fields

No lagrangian fields

Reconstructing sets:
Time = 78

Reconstructing FV fields

    Reconstructing volScalarFields

        p
        nut
        k
        omega

    Reconstructing volVectorFields

        U

    Reconstructing surfaceScalarFields

        phi

Reconstructing point fields

No point fields

No lagrangian fields

Reconstructing sets:
Time = 79

Reconstructing FV fields

    Reconstructing volScalarFields

        p
        nut
        k
        omega

    Reconstructing volVectorFields

        U

    Reconstructing surfaceScalarFields

        phi

Reconstructing point fields

No point fields

No lagrangian fields

Reconstructing sets:
Time = 80

Reconstructing FV fields

    Reconstructing volScalarFields

        p
        nut
        k
        omega

    Reconstructing volVectorFields

        U

    Reconstructing surfaceScalarFields

        phi

Reconstructing point fields

No point fields

No lagrangian fields

Reconstructing sets:
Time = 81

Reconstructing FV fields

    Reconstructing volScalarFields

        p
        nut
        k
        omega

    Reconstructing volVectorFields

        U

    Reconstructing surfaceScalarFields

        phi

Reconstructing point fields

No point fields

No lagrangian fields

Reconstructing sets:
Time = 82

Reconstructing FV fields

    Reconstructing volScalarFields

        p
        nut
        k
        omega

    Reconstructing volVectorFields

        U

    Reconstructing surfaceScalarFields

        phi

Reconstructing point fields

No point fields

No lagrangian fields

Reconstructing sets:
Time = 83

Reconstructing FV fields

    Reconstructing volScalarFields

        p
        nut
        k
        omega

    Reconstructing volVectorFields

        U

    Reconstructing surfaceScalarFields

        phi

Reconstructing point fields

No point fields

No lagrangian fields

Reconstructing sets:
Time = 84

Reconstructing FV fields

    Reconstructing volScalarFields

        p
        nut
        k
        omega

    Reconstructing volVectorFields

        U

    Reconstructing surfaceScalarFields

        phi

Reconstructing point fields

No point fields

No lagrangian fields

Reconstructing sets:
Time = 85

Reconstructing FV fields

    Reconstructing volScalarFields

        p
        nut
        k
        omega

    Reconstructing volVectorFields

        U

    Reconstructing surfaceScalarFields

        phi

Reconstructing point fields

No point fields

No lagrangian fields

Reconstructing sets:
Time = 86

Reconstructing FV fields

    Reconstructing volScalarFields

        p
        nut
        k
        omega

    Reconstructing volVectorFields

        U

    Reconstructing surfaceScalarFields

        phi

Reconstructing point fields

No point fields

No lagrangian fields

Reconstructing sets:
Time = 87

Reconstructing FV fields

    Reconstructing volScalarFields

        p
        nut
        k
        omega

    Reconstructing volVectorFields

        U

    Reconstructing surfaceScalarFields

        phi

Reconstructing point fields

No point fields

No lagrangian fields

Reconstructing sets:
Time = 88

Reconstructing FV fields

    Reconstructing volScalarFields

        p
        nut
        k
        omega

    Reconstructing volVectorFields

        U

    Reconstructing surfaceScalarFields

        phi

Reconstructing point fields

No point fields

No lagrangian fields

Reconstructing sets:
Time = 89

Reconstructing FV fields

    Reconstructing volScalarFields

        p
        nut
        k
        omega

    Reconstructing volVectorFields

        U

    Reconstructing surfaceScalarFields

        phi

Reconstructing point fields

No point fields

No lagrangian fields

Reconstructing sets:
Time = 90

Reconstructing FV fields

    Reconstructing volScalarFields

        p
        nut
        k
        omega

    Reconstructing volVectorFields

        U

    Reconstructing surfaceScalarFields

        phi

Reconstructing point fields

No point fields

No lagrangian fields

Reconstructing sets:
Time = 91

Reconstructing FV fields

    Reconstructing volScalarFields

        p
        nut
        k
        omega

    Reconstructing volVectorFields

        U

    Reconstructing surfaceScalarFields

        phi

Reconstructing point fields

No point fields

No lagrangian fields

Reconstructing sets:
Time = 92

Reconstructing FV fields

    Reconstructing volScalarFields

        p
        nut
        k
        omega

    Reconstructing volVectorFields

        U

    Reconstructing surfaceScalarFields

        phi

Reconstructing point fields

No point fields

No lagrangian fields

Reconstructing sets:
Time = 93

Reconstructing FV fields

    Reconstructing volScalarFields

        p
        nut
        k
        omega

    Reconstructing volVectorFields

        U

    Reconstructing surfaceScalarFields

        phi

Reconstructing point fields

No point fields

No lagrangian fields

Reconstructing sets:
Time = 94

Reconstructing FV fields

    Reconstructing volScalarFields

        p
        nut
        k
        omega

    Reconstructing volVectorFields

        U

    Reconstructing surfaceScalarFields

        phi

Reconstructing point fields

No point fields

No lagrangian fields

Reconstructing sets:
Time = 95

Reconstructing FV fields

    Reconstructing volScalarFields

        p
        nut
        k
        omega

    Reconstructing volVectorFields

        U

    Reconstructing surfaceScalarFields

        phi

Reconstructing point fields

No point fields

No lagrangian fields

Reconstructing sets:
Time = 96

Reconstructing FV fields

    Reconstructing volScalarFields

        p
        nut
        k
        omega

    Reconstructing volVectorFields

        U

    Reconstructing surfaceScalarFields

        phi

Reconstructing point fields

No point fields

No lagrangian fields

Reconstructing sets:
Time = 97

Reconstructing FV fields

    Reconstructing volScalarFields

        p
        nut
        k
        omega

    Reconstructing volVectorFields

        U

    Reconstructing surfaceScalarFields

        phi

Reconstructing point fields

No point fields

No lagrangian fields

Reconstructing sets:
Time = 98

Reconstructing FV fields

    Reconstructing volScalarFields

        p
        nut
        k
        omega

    Reconstructing volVectorFields

        U

    Reconstructing surfaceScalarFields

        phi

Reconstructing point fields

No point fields

No lagrangian fields

Reconstructing sets:
Time = 99

Reconstructing FV fields

    Reconstructing volScalarFields

        p
        nut
        k
        omega

    Reconstructing volVectorFields

        U

    Reconstructing surfaceScalarFields

        phi

Reconstructing point fields

No point fields

No lagrangian fields

Reconstructing sets:
Time = 100

Reconstructing FV fields

    Reconstructing volScalarFields

        p
        nut
        k
        omega

    Reconstructing volVectorFields

        U

    Reconstructing surfaceScalarFields

        phi

Reconstructing point fields

No point fields

No lagrangian fields

Reconstructing sets:
Time = 101

Reconstructing FV fields

    Reconstructing volScalarFields

        p
        nut
        k
        omega

    Reconstructing volVectorFields

        U

    Reconstructing surfaceScalarFields

        phi

Reconstructing point fields

No point fields

No lagrangian fields

Reconstructing sets:
Time = 102

Reconstructing FV fields

    Reconstructing volScalarFields

        p
        nut
        k
        omega

    Reconstructing volVectorFields

        U

    Reconstructing surfaceScalarFields

        phi

Reconstructing point fields

No point fields

No lagrangian fields

Reconstructing sets:
Time = 103

Reconstructing FV fields

    Reconstructing volScalarFields

        p
        nut
        k
        omega

    Reconstructing volVectorFields

        U

    Reconstructing surfaceScalarFields

        phi

Reconstructing point fields

No point fields

No lagrangian fields

Reconstructing sets:
Time = 104

Reconstructing FV fields

    Reconstructing volScalarFields

        p
        nut
        k
        omega

    Reconstructing volVectorFields

        U

    Reconstructing surfaceScalarFields

        phi

Reconstructing point fields

No point fields

No lagrangian fields

Reconstructing sets:
Time = 105

Reconstructing FV fields

    Reconstructing volScalarFields

        p
        nut
        k
        omega

    Reconstructing volVectorFields

        U

    Reconstructing surfaceScalarFields

        phi

Reconstructing point fields

No point fields

No lagrangian fields

Reconstructing sets:
Time = 106

Reconstructing FV fields

    Reconstructing volScalarFields

        p
        nut
        k
        omega

    Reconstructing volVectorFields

        U

    Reconstructing surfaceScalarFields

        phi

Reconstructing point fields

No point fields

No lagrangian fields

Reconstructing sets:
Time = 107

Reconstructing FV fields

    Reconstructing volScalarFields

        p
        nut
        k
        omega

    Reconstructing volVectorFields

        U

    Reconstructing surfaceScalarFields

        phi

Reconstructing point fields

No point fields

No lagrangian fields

Reconstructing sets:
Time = 108

Reconstructing FV fields

    Reconstructing volScalarFields

        p
        nut
        k
        omega

    Reconstructing volVectorFields

        U

    Reconstructing surfaceScalarFields

        phi

Reconstructing point fields

No point fields

No lagrangian fields

Reconstructing sets:
Time = 109

Reconstructing FV fields

    Reconstructing volScalarFields

        p
        nut
        k
        omega

    Reconstructing volVectorFields

        U

    Reconstructing surfaceScalarFields

        phi

Reconstructing point fields

No point fields

No lagrangian fields

Reconstructing sets:
Time = 110

Reconstructing FV fields

    Reconstructing volScalarFields

        p
        nut
        k
        omega

    Reconstructing volVectorFields

        U

    Reconstructing surfaceScalarFields

        phi

Reconstructing point fields

No point fields

No lagrangian fields

Reconstructing sets:
Time = 111

Reconstructing FV fields

    Reconstructing volScalarFields

        p
        nut
        k
        omega

    Reconstructing volVectorFields

        U

    Reconstructing surfaceScalarFields

        phi

Reconstructing point fields

No point fields

No lagrangian fields

Reconstructing sets:
Time = 112

Reconstructing FV fields

    Reconstructing volScalarFields

        p
        nut
        k
        omega

    Reconstructing volVectorFields

        U

    Reconstructing surfaceScalarFields

        phi

Reconstructing point fields

No point fields

No lagrangian fields

Reconstructing sets:
Time = 113

Reconstructing FV fields

    Reconstructing volScalarFields

        p
        nut
        k
        omega

    Reconstructing volVectorFields

        U

    Reconstructing surfaceScalarFields

        phi

Reconstructing point fields

No point fields

No lagrangian fields

Reconstructing sets:
Time = 114

Reconstructing FV fields

    Reconstructing volScalarFields

        p
        nut
        k
        omega

    Reconstructing volVectorFields

        U

    Reconstructing surfaceScalarFields

        phi

Reconstructing point fields

No point fields

No lagrangian fields

Reconstructing sets:
Time = 115

Reconstructing FV fields

    Reconstructing volScalarFields

        p
        nut
        k
        omega

    Reconstructing volVectorFields

        U

    Reconstructing surfaceScalarFields

        phi

Reconstructing point fields

No point fields

No lagrangian fields

Reconstructing sets:
Time = 116

Reconstructing FV fields

    Reconstructing volScalarFields

        p
        nut
        k
        omega

    Reconstructing volVectorFields

        U

    Reconstructing surfaceScalarFields

        phi

Reconstructing point fields

No point fields

No lagrangian fields

Reconstructing sets:
Time = 117

Reconstructing FV fields

    Reconstructing volScalarFields

        p
        nut
        k
        omega

    Reconstructing volVectorFields

        U

    Reconstructing surfaceScalarFields

        phi

Reconstructing point fields

No point fields

No lagrangian fields

Reconstructing sets:
Time = 118

Reconstructing FV fields

    Reconstructing volScalarFields

        p
        nut
        k
        omega

    Reconstructing volVectorFields

        U

    Reconstructing surfaceScalarFields

        phi

Reconstructing point fields

No point fields

No lagrangian fields

Reconstructing sets:
Time = 119

Reconstructing FV fields

    Reconstructing volScalarFields

        p
        nut
        k
        omega

    Reconstructing volVectorFields

        U

    Reconstructing surfaceScalarFields

        phi

Reconstructing point fields

No point fields

No lagrangian fields

Reconstructing sets:
Time = 120

Reconstructing FV fields

    Reconstructing volScalarFields

        p
        nut
        k
        omega

    Reconstructing volVectorFields

        U

    Reconstructing surfaceScalarFields

        phi

Reconstructing point fields

No point fields

No lagrangian fields

Reconstructing sets:
Time = 121

Reconstructing FV fields

    Reconstructing volScalarFields

        p
        nut
        k
        omega

    Reconstructing volVectorFields

        U

    Reconstructing surfaceScalarFields

        phi

Reconstructing point fields

No point fields

No lagrangian fields

Reconstructing sets:
Time = 122

Reconstructing FV fields

    Reconstructing volScalarFields

        p
        nut
        k
        omega

    Reconstructing volVectorFields

        U

    Reconstructing surfaceScalarFields

        phi

Reconstructing point fields

No point fields

No lagrangian fields

Reconstructing sets:
Time = 123

Reconstructing FV fields

    Reconstructing volScalarFields

        p
        nut
        k
        omega

    Reconstructing volVectorFields

        U

    Reconstructing surfaceScalarFields

        phi

Reconstructing point fields

No point fields

No lagrangian fields

Reconstructing sets:
Time = 124

Reconstructing FV fields

    Reconstructing volScalarFields

        p
        nut
        k
        omega

    Reconstructing volVectorFields

        U

    Reconstructing surfaceScalarFields

        phi

Reconstructing point fields

No point fields

No lagrangian fields

Reconstructing sets:
Time = 125

Reconstructing FV fields

    Reconstructing volScalarFields

        p
        nut
        k
        omega

    Reconstructing volVectorFields

        U

    Reconstructing surfaceScalarFields

        phi

Reconstructing point fields

No point fields

No lagrangian fields

Reconstructing sets:
Time = 126

Reconstructing FV fields

    Reconstructing volScalarFields

        p
        nut
        k
        omega

    Reconstructing volVectorFields

        U

    Reconstructing surfaceScalarFields

        phi

Reconstructing point fields

No point fields

No lagrangian fields

Reconstructing sets:
Time = 127

Reconstructing FV fields

    Reconstructing volScalarFields

        p
        nut
        k
        omega

    Reconstructing volVectorFields

        U

    Reconstructing surfaceScalarFields

        phi

Reconstructing point fields

No point fields

No lagrangian fields

Reconstructing sets:
Time = 128

Reconstructing FV fields

    Reconstructing volScalarFields

        p
        nut
        k
        omega

    Reconstructing volVectorFields

        U

    Reconstructing surfaceScalarFields

        phi

Reconstructing point fields

No point fields

No lagrangian fields

Reconstructing sets:
Time = 129

Reconstructing FV fields

    Reconstructing volScalarFields

        p
        nut
        k
        omega

    Reconstructing volVectorFields

        U

    Reconstructing surfaceScalarFields

        phi

Reconstructing point fields

No point fields

No lagrangian fields

Reconstructing sets:
Time = 130

Reconstructing FV fields

    Reconstructing volScalarFields

        p
        nut
        k
        omega

    Reconstructing volVectorFields

        U

    Reconstructing surfaceScalarFields

        phi

Reconstructing point fields

No point fields

No lagrangian fields

Reconstructing sets:
Time = 131

Reconstructing FV fields

    Reconstructing volScalarFields

        p
        nut
        k
        omega

    Reconstructing volVectorFields

        U

    Reconstructing surfaceScalarFields

        phi

Reconstructing point fields

No point fields

No lagrangian fields

Reconstructing sets:
Time = 132

Reconstructing FV fields

    Reconstructing volScalarFields

        p
        nut
        k
        omega

    Reconstructing volVectorFields

        U

    Reconstructing surfaceScalarFields

        phi

Reconstructing point fields

No point fields

No lagrangian fields

Reconstructing sets:
Time = 133

Reconstructing FV fields

    Reconstructing volScalarFields

        p
        nut
        k
        omega

    Reconstructing volVectorFields

        U

    Reconstructing surfaceScalarFields

        phi

Reconstructing point fields

No point fields

No lagrangian fields

Reconstructing sets:
Time = 134

Reconstructing FV fields

    Reconstructing volScalarFields

        p
        nut
        k
        omega

    Reconstructing volVectorFields

        U

    Reconstructing surfaceScalarFields

        phi

Reconstructing point fields

No point fields

No lagrangian fields

Reconstructing sets:
Time = 135

Reconstructing FV fields

    Reconstructing volScalarFields

        p
        nut
        k
        omega

    Reconstructing volVectorFields

        U

    Reconstructing surfaceScalarFields

        phi

Reconstructing point fields

No point fields

No lagrangian fields

Reconstructing sets:
Time = 136

Reconstructing FV fields

    Reconstructing volScalarFields

        p
        nut
        k
        omega

    Reconstructing volVectorFields

        U

    Reconstructing surfaceScalarFields

        phi

Reconstructing point fields

No point fields

No lagrangian fields

Reconstructing sets:
Time = 137

Reconstructing FV fields

    Reconstructing volScalarFields

        p
        nut
        k
        omega

    Reconstructing volVectorFields

        U

    Reconstructing surfaceScalarFields

        phi

Reconstructing point fields

No point fields

No lagrangian fields

Reconstructing sets:
Time = 138

Reconstructing FV fields

    Reconstructing volScalarFields

        p
        nut
        k
        omega

    Reconstructing volVectorFields

        U

    Reconstructing surfaceScalarFields

        phi

Reconstructing point fields

No point fields

No lagrangian fields

Reconstructing sets:
Time = 139

Reconstructing FV fields

    Reconstructing volScalarFields

        p
        nut
        k
        omega

    Reconstructing volVectorFields

        U

    Reconstructing surfaceScalarFields

        phi

Reconstructing point fields

No point fields

No lagrangian fields

Reconstructing sets:
Time = 140

Reconstructing FV fields

    Reconstructing volScalarFields

        p
        nut
        k
        omega

    Reconstructing volVectorFields

        U

    Reconstructing surfaceScalarFields

        phi

Reconstructing point fields

No point fields

No lagrangian fields

Reconstructing sets:
Time = 141

Reconstructing FV fields

    Reconstructing volScalarFields

        p
        nut
        k
        omega

    Reconstructing volVectorFields

        U

    Reconstructing surfaceScalarFields

        phi

Reconstructing point fields

No point fields

No lagrangian fields

Reconstructing sets:
Time = 142

Reconstructing FV fields

    Reconstructing volScalarFields

        p
        nut
        k
        omega

    Reconstructing volVectorFields

        U

    Reconstructing surfaceScalarFields

        phi

Reconstructing point fields

No point fields

No lagrangian fields

Reconstructing sets:
Time = 143

Reconstructing FV fields

    Reconstructing volScalarFields

        p
        nut
        k
        omega

    Reconstructing volVectorFields

        U

    Reconstructing surfaceScalarFields

        phi

Reconstructing point fields

No point fields

No lagrangian fields

Reconstructing sets:
Time = 144

Reconstructing FV fields

    Reconstructing volScalarFields

        p
        nut
        k
        omega

    Reconstructing volVectorFields

        U

    Reconstructing surfaceScalarFields

        phi

Reconstructing point fields

No point fields

No lagrangian fields

Reconstructing sets:
Time = 145

Reconstructing FV fields

    Reconstructing volScalarFields

        p
        nut
        k
        omega

    Reconstructing volVectorFields

        U

    Reconstructing surfaceScalarFields

        phi

Reconstructing point fields

No point fields

No lagrangian fields

Reconstructing sets:
Time = 146

Reconstructing FV fields

    Reconstructing volScalarFields

        p
        nut
        k
        omega

    Reconstructing volVectorFields

        U

    Reconstructing surfaceScalarFields

        phi

Reconstructing point fields

No point fields

No lagrangian fields

Reconstructing sets:
Time = 147

Reconstructing FV fields

    Reconstructing volScalarFields

        p
        nut
        k
        omega

    Reconstructing volVectorFields

        U

    Reconstructing surfaceScalarFields

        phi

Reconstructing point fields

No point fields

No lagrangian fields

Reconstructing sets:
Time = 148

Reconstructing FV fields

    Reconstructing volScalarFields

        p
        nut
        k
        omega

    Reconstructing volVectorFields

        U

    Reconstructing surfaceScalarFields

        phi

Reconstructing point fields

No point fields

No lagrangian fields

Reconstructing sets:
Time = 149

Reconstructing FV fields

    Reconstructing volScalarFields

        p
        nut
        k
        omega

    Reconstructing volVectorFields

        U

    Reconstructing surfaceScalarFields

        phi

Reconstructing point fields

No point fields

No lagrangian fields

Reconstructing sets:
Time = 150

Reconstructing FV fields

    Reconstructing volScalarFields

        p
        nut
        k
        omega

    Reconstructing volVectorFields

        U

    Reconstructing surfaceScalarFields

        phi

Reconstructing point fields

No point fields

No lagrangian fields

Reconstructing sets:
Time = 151

Reconstructing FV fields

    Reconstructing volScalarFields

        p
        nut
        k
        omega

    Reconstructing volVectorFields

        U

    Reconstructing surfaceScalarFields

        phi

Reconstructing point fields

No point fields

No lagrangian fields

Reconstructing sets:
Time = 152

Reconstructing FV fields

    Reconstructing volScalarFields

        p
        nut
        k
        omega

    Reconstructing volVectorFields

        U

    Reconstructing surfaceScalarFields

        phi

Reconstructing point fields

No point fields

No lagrangian fields

Reconstructing sets:
Time = 153

Reconstructing FV fields

    Reconstructing volScalarFields

        p
        nut
        k
        omega

    Reconstructing volVectorFields

        U

    Reconstructing surfaceScalarFields

        phi

Reconstructing point fields

No point fields

No lagrangian fields

Reconstructing sets:
Time = 154

Reconstructing FV fields

    Reconstructing volScalarFields

        p
        nut
        k
        omega

    Reconstructing volVectorFields

        U

    Reconstructing surfaceScalarFields

        phi

Reconstructing point fields

No point fields

No lagrangian fields

Reconstructing sets:
Time = 155

Reconstructing FV fields

    Reconstructing volScalarFields

        p
        nut
        k
        omega

    Reconstructing volVectorFields

        U

    Reconstructing surfaceScalarFields

        phi

Reconstructing point fields

No point fields

No lagrangian fields

Reconstructing sets:
Time = 156

Reconstructing FV fields

    Reconstructing volScalarFields

        p
        nut
        k
        omega

    Reconstructing volVectorFields

        U

    Reconstructing surfaceScalarFields

        phi

Reconstructing point fields

No point fields

No lagrangian fields

Reconstructing sets:
Time = 157

Reconstructing FV fields

    Reconstructing volScalarFields

        p
        nut
        k
        omega

    Reconstructing volVectorFields

        U

    Reconstructing surfaceScalarFields

        phi

Reconstructing point fields

No point fields

No lagrangian fields

Reconstructing sets:
Time = 158

Reconstructing FV fields

    Reconstructing volScalarFields

        p
        nut
        k
        omega

    Reconstructing volVectorFields

        U

    Reconstructing surfaceScalarFields

        phi

Reconstructing point fields

No point fields

No lagrangian fields

Reconstructing sets:
Time = 159

Reconstructing FV fields

    Reconstructing volScalarFields

        p
        nut
        k
        omega

    Reconstructing volVectorFields

        U

    Reconstructing surfaceScalarFields

        phi

Reconstructing point fields

No point fields

No lagrangian fields

Reconstructing sets:
Time = 160

Reconstructing FV fields

    Reconstructing volScalarFields

        p
        nut
        k
        omega

    Reconstructing volVectorFields

        U

    Reconstructing surfaceScalarFields

        phi

Reconstructing point fields

No point fields

No lagrangian fields

Reconstructing sets:
Time = 161

Reconstructing FV fields

    Reconstructing volScalarFields

        p
        nut
        k
        omega

    Reconstructing volVectorFields

        U

    Reconstructing surfaceScalarFields

        phi

Reconstructing point fields

No point fields

No lagrangian fields

Reconstructing sets:
Time = 162

Reconstructing FV fields

    Reconstructing volScalarFields

        p
        nut
        k
        omega

    Reconstructing volVectorFields

        U

    Reconstructing surfaceScalarFields

        phi

Reconstructing point fields

No point fields

No lagrangian fields

Reconstructing sets:
Time = 163

Reconstructing FV fields

    Reconstructing volScalarFields

        p
        nut
        k
        omega

    Reconstructing volVectorFields

        U

    Reconstructing surfaceScalarFields

        phi

Reconstructing point fields

No point fields

No lagrangian fields

Reconstructing sets:
Time = 164

Reconstructing FV fields

    Reconstructing volScalarFields

        p
        nut
        k
        omega

    Reconstructing volVectorFields

        U

    Reconstructing surfaceScalarFields

        phi

Reconstructing point fields

No point fields

No lagrangian fields

Reconstructing sets:
Time = 165

Reconstructing FV fields

    Reconstructing volScalarFields

        p
        nut
        k
        omega

    Reconstructing volVectorFields

        U

    Reconstructing surfaceScalarFields

        phi

Reconstructing point fields

No point fields

No lagrangian fields

Reconstructing sets:
Time = 166

Reconstructing FV fields

    Reconstructing volScalarFields

        p
        nut
        k
        omega

    Reconstructing volVectorFields

        U

    Reconstructing surfaceScalarFields

        phi

Reconstructing point fields

No point fields

No lagrangian fields

Reconstructing sets:
Time = 167

Reconstructing FV fields

    Reconstructing volScalarFields

        p
        nut
        k
        omega

    Reconstructing volVectorFields

        U

    Reconstructing surfaceScalarFields

        phi

Reconstructing point fields

No point fields

No lagrangian fields

Reconstructing sets:
Time = 168

Reconstructing FV fields

    Reconstructing volScalarFields

        p
        nut
        k
        omega

    Reconstructing volVectorFields

        U

    Reconstructing surfaceScalarFields

        phi

Reconstructing point fields

No point fields

No lagrangian fields

Reconstructing sets:
Time = 169

Reconstructing FV fields

    Reconstructing volScalarFields

        p
        nut
        k
        omega

    Reconstructing volVectorFields

        U

    Reconstructing surfaceScalarFields

        phi

Reconstructing point fields

No point fields

No lagrangian fields

Reconstructing sets:
Time = 170

Reconstructing FV fields

    Reconstructing volScalarFields

        p
        nut
        k
        omega

    Reconstructing volVectorFields

        U

    Reconstructing surfaceScalarFields

        phi

Reconstructing point fields

No point fields

No lagrangian fields

Reconstructing sets:
Time = 171

Reconstructing FV fields

    Reconstructing volScalarFields

        p
        nut
        k
        omega

    Reconstructing volVectorFields

        U

    Reconstructing surfaceScalarFields

        phi

Reconstructing point fields

No point fields

No lagrangian fields

Reconstructing sets:
Time = 172

Reconstructing FV fields

    Reconstructing volScalarFields

        p
        nut
        k
        omega

    Reconstructing volVectorFields

        U

    Reconstructing surfaceScalarFields

        phi

Reconstructing point fields

No point fields

No lagrangian fields

Reconstructing sets:
Time = 173

Reconstructing FV fields

    Reconstructing volScalarFields

        p
        nut
        k
        omega

    Reconstructing volVectorFields

        U

    Reconstructing surfaceScalarFields

        phi

Reconstructing point fields

No point fields

No lagrangian fields

Reconstructing sets:
Time = 174

Reconstructing FV fields

    Reconstructing volScalarFields

        p
        nut
        k
        omega

    Reconstructing volVectorFields

        U

    Reconstructing surfaceScalarFields

        phi

Reconstructing point fields

No point fields

No lagrangian fields

Reconstructing sets:
Time = 175

Reconstructing FV fields

    Reconstructing volScalarFields

        p
        nut
        k
        omega

    Reconstructing volVectorFields

        U

    Reconstructing surfaceScalarFields

        phi

Reconstructing point fields

No point fields

No lagrangian fields

Reconstructing sets:
Time = 176

Reconstructing FV fields

    Reconstructing volScalarFields

        p
        nut
        k
        omega

    Reconstructing volVectorFields

        U

    Reconstructing surfaceScalarFields

        phi

Reconstructing point fields

No point fields

No lagrangian fields

Reconstructing sets:
Time = 177

Reconstructing FV fields

    Reconstructing volScalarFields

        p
        nut
        k
        omega

    Reconstructing volVectorFields

        U

    Reconstructing surfaceScalarFields

        phi

Reconstructing point fields

No point fields

No lagrangian fields

Reconstructing sets:
Time = 178

Reconstructing FV fields

    Reconstructing volScalarFields

        p
        nut
        k
        omega

    Reconstructing volVectorFields

        U

    Reconstructing surfaceScalarFields

        phi

Reconstructing point fields

No point fields

No lagrangian fields

Reconstructing sets:
Time = 179

Reconstructing FV fields

    Reconstructing volScalarFields

        p
        nut
        k
        omega

    Reconstructing volVectorFields

        U

    Reconstructing surfaceScalarFields

        phi

Reconstructing point fields

No point fields

No lagrangian fields

Reconstructing sets:
Time = 180

Reconstructing FV fields

    Reconstructing volScalarFields

        p
        nut
        k
        omega

    Reconstructing volVectorFields

        U

    Reconstructing surfaceScalarFields

        phi

Reconstructing point fields

No point fields

No lagrangian fields

Reconstructing sets:
Time = 181

Reconstructing FV fields

    Reconstructing volScalarFields

        p
        nut
        k
        omega

    Reconstructing volVectorFields

        U

    Reconstructing surfaceScalarFields

        phi

Reconstructing point fields

No point fields

No lagrangian fields

Reconstructing sets:
Time = 182

Reconstructing FV fields

    Reconstructing volScalarFields

        p
        nut
        k
        omega

    Reconstructing volVectorFields

        U

    Reconstructing surfaceScalarFields

        phi

Reconstructing point fields

No point fields

No lagrangian fields

Reconstructing sets:
Time = 183

Reconstructing FV fields

    Reconstructing volScalarFields

        p
        nut
        k
        omega

    Reconstructing volVectorFields

        U

    Reconstructing surfaceScalarFields

        phi

Reconstructing point fields

No point fields

No lagrangian fields

Reconstructing sets:
Time = 184

Reconstructing FV fields

    Reconstructing volScalarFields

        p
        nut
        k
        omega

    Reconstructing volVectorFields

        U

    Reconstructing surfaceScalarFields

        phi

Reconstructing point fields

No point fields

No lagrangian fields

Reconstructing sets:
Time = 185

Reconstructing FV fields

    Reconstructing volScalarFields

        p
        nut
        k
        omega

    Reconstructing volVectorFields

        U

    Reconstructing surfaceScalarFields

        phi

Reconstructing point fields

No point fields

No lagrangian fields

Reconstructing sets:
Time = 186

Reconstructing FV fields

    Reconstructing volScalarFields

        p
        nut
        k
        omega

    Reconstructing volVectorFields

        U

    Reconstructing surfaceScalarFields

        phi

Reconstructing point fields

No point fields

No lagrangian fields

Reconstructing sets:
Time = 187

Reconstructing FV fields

    Reconstructing volScalarFields

        p
        nut
        k
        omega

    Reconstructing volVectorFields

        U

    Reconstructing surfaceScalarFields

        phi

Reconstructing point fields

No point fields

No lagrangian fields

Reconstructing sets:
Time = 188

Reconstructing FV fields

    Reconstructing volScalarFields

        p
        nut
        k
        omega

    Reconstructing volVectorFields

        U

    Reconstructing surfaceScalarFields

        phi

Reconstructing point fields

No point fields

No lagrangian fields

Reconstructing sets:
Time = 189

Reconstructing FV fields

    Reconstructing volScalarFields

        p
        nut
        k
        omega

    Reconstructing volVectorFields

        U

    Reconstructing surfaceScalarFields

        phi

Reconstructing point fields

No point fields

No lagrangian fields

Reconstructing sets:
Time = 190

Reconstructing FV fields

    Reconstructing volScalarFields

        p
        nut
        k
        omega

    Reconstructing volVectorFields

        U

    Reconstructing surfaceScalarFields

        phi

Reconstructing point fields

No point fields

No lagrangian fields

Reconstructing sets:
Time = 191

Reconstructing FV fields

    Reconstructing volScalarFields

        p
        nut
        k
        omega

    Reconstructing volVectorFields

        U

    Reconstructing surfaceScalarFields

        phi

Reconstructing point fields

No point fields

No lagrangian fields

Reconstructing sets:
Time = 192

Reconstructing FV fields

    Reconstructing volScalarFields

        p
        nut
        k
        omega

    Reconstructing volVectorFields

        U

    Reconstructing surfaceScalarFields

        phi

Reconstructing point fields

No point fields

No lagrangian fields

Reconstructing sets:
Time = 193

Reconstructing FV fields

    Reconstructing volScalarFields

        p
        nut
        k
        omega

    Reconstructing volVectorFields

        U

    Reconstructing surfaceScalarFields

        phi

Reconstructing point fields

No point fields

No lagrangian fields

Reconstructing sets:
Time = 194

Reconstructing FV fields

    Reconstructing volScalarFields

        p
        nut
        k
        omega

    Reconstructing volVectorFields

        U

    Reconstructing surfaceScalarFields

        phi

Reconstructing point fields

No point fields

No lagrangian fields

Reconstructing sets:
Time = 195

Reconstructing FV fields

    Reconstructing volScalarFields

        p
        nut
        k
        omega

    Reconstructing volVectorFields

        U

    Reconstructing surfaceScalarFields

        phi

Reconstructing point fields

No point fields

No lagrangian fields

Reconstructing sets:
Time = 196

Reconstructing FV fields

    Reconstructing volScalarFields

        p
        nut
        k
        omega

    Reconstructing volVectorFields

        U

    Reconstructing surfaceScalarFields

        phi

Reconstructing point fields

No point fields

No lagrangian fields

Reconstructing sets:
Time = 197

Reconstructing FV fields

    Reconstructing volScalarFields

        p
        nut
        k
        omega

    Reconstructing volVectorFields

        U

    Reconstructing surfaceScalarFields

        phi

Reconstructing point fields

No point fields

No lagrangian fields

Reconstructing sets:
Time = 198

Reconstructing FV fields

    Reconstructing volScalarFields

        p
        nut
        k
        omega

    Reconstructing volVectorFields

        U

    Reconstructing surfaceScalarFields

        phi

Reconstructing point fields

No point fields

No lagrangian fields

Reconstructing sets:
Time = 199

Reconstructing FV fields

    Reconstructing volScalarFields

        p
        nut
        k
        omega

    Reconstructing volVectorFields

        U

    Reconstructing surfaceScalarFields

        phi

Reconstructing point fields

No point fields

No lagrangian fields

Reconstructing sets:
Time = 200

Reconstructing FV fields

    Reconstructing volScalarFields

        p
        nut
        k
        omega

    Reconstructing volVectorFields

        U

    Reconstructing surfaceScalarFields

        phi

Reconstructing point fields

No point fields

No lagrangian fields

Reconstructing sets:
Time = 201

Reconstructing FV fields

    Reconstructing volScalarFields

        p
        nut
        k
        omega

    Reconstructing volVectorFields

        U

    Reconstructing surfaceScalarFields

        phi

Reconstructing point fields

No point fields

No lagrangian fields

Reconstructing sets:
Time = 202

Reconstructing FV fields

    Reconstructing volScalarFields

        p
        nut
        k
        omega

    Reconstructing volVectorFields

        U

    Reconstructing surfaceScalarFields

        phi

Reconstructing point fields

No point fields

No lagrangian fields

Reconstructing sets:
Time = 203

Reconstructing FV fields

    Reconstructing volScalarFields

        p
        nut
        k
        omega

    Reconstructing volVectorFields

        U

    Reconstructing surfaceScalarFields

        phi

Reconstructing point fields

No point fields

No lagrangian fields

Reconstructing sets:
Time = 204

Reconstructing FV fields

    Reconstructing volScalarFields

        p
        nut
        k
        omega

    Reconstructing volVectorFields

        U

    Reconstructing surfaceScalarFields

        phi

Reconstructing point fields

No point fields

No lagrangian fields

Reconstructing sets:
Time = 205

Reconstructing FV fields

    Reconstructing volScalarFields

        p
        nut
        k
        omega

    Reconstructing volVectorFields

        U

    Reconstructing surfaceScalarFields

        phi

Reconstructing point fields

No point fields

No lagrangian fields

Reconstructing sets:
Time = 206

Reconstructing FV fields

    Reconstructing volScalarFields

        p
        nut
        k
        omega

    Reconstructing volVectorFields

        U

    Reconstructing surfaceScalarFields

        phi

Reconstructing point fields

No point fields

No lagrangian fields

Reconstructing sets:
Time = 207

Reconstructing FV fields

    Reconstructing volScalarFields

        p
        nut
        k
        omega

    Reconstructing volVectorFields

        U

    Reconstructing surfaceScalarFields

        phi

Reconstructing point fields

No point fields

No lagrangian fields

Reconstructing sets:
Time = 208

Reconstructing FV fields

    Reconstructing volScalarFields

        p
        nut
        k
        omega

    Reconstructing volVectorFields

        U

    Reconstructing surfaceScalarFields

        phi

Reconstructing point fields

No point fields

No lagrangian fields

Reconstructing sets:
Time = 209

Reconstructing FV fields

    Reconstructing volScalarFields

        p
        nut
        k
        omega

    Reconstructing volVectorFields

        U

    Reconstructing surfaceScalarFields

        phi

Reconstructing point fields

No point fields

No lagrangian fields

Reconstructing sets:
Time = 210

Reconstructing FV fields

    Reconstructing volScalarFields

        p
        nut
        k
        omega

    Reconstructing volVectorFields

        U

    Reconstructing surfaceScalarFields

        phi

Reconstructing point fields

No point fields

No lagrangian fields

Reconstructing sets:
Time = 211

Reconstructing FV fields

    Reconstructing volScalarFields

        p
        nut
        k
        omega

    Reconstructing volVectorFields

        U

    Reconstructing surfaceScalarFields

        phi

Reconstructing point fields

No point fields

No lagrangian fields

Reconstructing sets:
Time = 212

Reconstructing FV fields

    Reconstructing volScalarFields

        p
        nut
        k
        omega

    Reconstructing volVectorFields

        U

    Reconstructing surfaceScalarFields

        phi

Reconstructing point fields

No point fields

No lagrangian fields

Reconstructing sets:
Time = 213

Reconstructing FV fields

    Reconstructing volScalarFields

        p
        nut
        k
        omega

    Reconstructing volVectorFields

        U

    Reconstructing surfaceScalarFields

        phi

Reconstructing point fields

No point fields

No lagrangian fields

Reconstructing sets:
Time = 214

Reconstructing FV fields

    Reconstructing volScalarFields

        p
        nut
        k
        omega

    Reconstructing volVectorFields

        U

    Reconstructing surfaceScalarFields

        phi

Reconstructing point fields

No point fields

No lagrangian fields

Reconstructing sets:
Time = 215

Reconstructing FV fields

    Reconstructing volScalarFields

        p
        nut
        k
        omega

    Reconstructing volVectorFields

        U

    Reconstructing surfaceScalarFields

        phi

Reconstructing point fields

No point fields

No lagrangian fields

Reconstructing sets:
Time = 216

Reconstructing FV fields

    Reconstructing volScalarFields

        p
        nut
        k
        omega

    Reconstructing volVectorFields

        U

    Reconstructing surfaceScalarFields

        phi

Reconstructing point fields

No point fields

No lagrangian fields

Reconstructing sets:
Time = 217

Reconstructing FV fields

    Reconstructing volScalarFields

        p
        nut
        k
        omega

    Reconstructing volVectorFields

        U

    Reconstructing surfaceScalarFields

        phi

Reconstructing point fields

No point fields

No lagrangian fields

Reconstructing sets:
Time = 218

Reconstructing FV fields

    Reconstructing volScalarFields

        p
        nut
        k
        omega

    Reconstructing volVectorFields

        U

    Reconstructing surfaceScalarFields

        phi

Reconstructing point fields

No point fields

No lagrangian fields

Reconstructing sets:
Time = 219

Reconstructing FV fields

    Reconstructing volScalarFields

        p
        nut
        k
        omega

    Reconstructing volVectorFields

        U

    Reconstructing surfaceScalarFields

        phi

Reconstructing point fields

No point fields

No lagrangian fields

Reconstructing sets:
Time = 220

Reconstructing FV fields

    Reconstructing volScalarFields

        p
        nut
        k
        omega

    Reconstructing volVectorFields

        U

    Reconstructing surfaceScalarFields

        phi

Reconstructing point fields

No point fields

No lagrangian fields

Reconstructing sets:
Time = 221

Reconstructing FV fields

    Reconstructing volScalarFields

        p
        nut
        k
        omega

    Reconstructing volVectorFields

        U

    Reconstructing surfaceScalarFields

        phi

Reconstructing point fields

No point fields

No lagrangian fields

Reconstructing sets:
Time = 222

Reconstructing FV fields

    Reconstructing volScalarFields

        p
        nut
        k
        omega

    Reconstructing volVectorFields

        U

    Reconstructing surfaceScalarFields

        phi

Reconstructing point fields

No point fields

No lagrangian fields

Reconstructing sets:
Time = 223

Reconstructing FV fields

    Reconstructing volScalarFields

        p
        nut
        k
        omega

    Reconstructing volVectorFields

        U

    Reconstructing surfaceScalarFields

        phi

Reconstructing point fields

No point fields

No lagrangian fields

Reconstructing sets:
Time = 224

Reconstructing FV fields

    Reconstructing volScalarFields

        p
        nut
        k
        omega

    Reconstructing volVectorFields

        U

    Reconstructing surfaceScalarFields

        phi

Reconstructing point fields

No point fields

No lagrangian fields

Reconstructing sets:
Time = 225

Reconstructing FV fields

    Reconstructing volScalarFields

        p
        nut
        k
        omega

    Reconstructing volVectorFields

        U

    Reconstructing surfaceScalarFields

        phi

Reconstructing point fields

No point fields

No lagrangian fields

Reconstructing sets:
Time = 226

Reconstructing FV fields

    Reconstructing volScalarFields

        p
        nut
        k
        omega

    Reconstructing volVectorFields

        U

    Reconstructing surfaceScalarFields

        phi

Reconstructing point fields

No point fields

No lagrangian fields

Reconstructing sets:
Time = 227

Reconstructing FV fields

    Reconstructing volScalarFields

        p
        nut
        k
        omega

    Reconstructing volVectorFields

        U

    Reconstructing surfaceScalarFields

        phi

Reconstructing point fields

No point fields

No lagrangian fields

Reconstructing sets:
Time = 228

Reconstructing FV fields

    Reconstructing volScalarFields

        p
        nut
        k
        omega

    Reconstructing volVectorFields

        U

    Reconstructing surfaceScalarFields

        phi

Reconstructing point fields

No point fields

No lagrangian fields

Reconstructing sets:
Time = 229

Reconstructing FV fields

    Reconstructing volScalarFields

        p
        nut
        k
        omega

    Reconstructing volVectorFields

        U

    Reconstructing surfaceScalarFields

        phi

Reconstructing point fields

No point fields

No lagrangian fields

Reconstructing sets:
Time = 230

Reconstructing FV fields

    Reconstructing volScalarFields

        p
        nut
        k
        omega

    Reconstructing volVectorFields

        U

    Reconstructing surfaceScalarFields

        phi

Reconstructing point fields

No point fields

No lagrangian fields

Reconstructing sets:
Time = 231

Reconstructing FV fields

    Reconstructing volScalarFields

        p
        nut
        k
        omega

    Reconstructing volVectorFields

        U

    Reconstructing surfaceScalarFields

        phi

Reconstructing point fields

No point fields

No lagrangian fields

Reconstructing sets:
Time = 232

Reconstructing FV fields

    Reconstructing volScalarFields

        p
        nut
        k
        omega

    Reconstructing volVectorFields

        U

    Reconstructing surfaceScalarFields

        phi

Reconstructing point fields

No point fields

No lagrangian fields

Reconstructing sets:
Time = 233

Reconstructing FV fields

    Reconstructing volScalarFields

        p
        nut
        k
        omega

    Reconstructing volVectorFields

        U

    Reconstructing surfaceScalarFields

        phi

Reconstructing point fields

No point fields

No lagrangian fields

Reconstructing sets:
Time = 234

Reconstructing FV fields

    Reconstructing volScalarFields

        p
        nut
        k
        omega

    Reconstructing volVectorFields

        U

    Reconstructing surfaceScalarFields

        phi

Reconstructing point fields

No point fields

No lagrangian fields

Reconstructing sets:
Time = 235

Reconstructing FV fields

    Reconstructing volScalarFields

        p
        nut
        k
        omega

    Reconstructing volVectorFields

        U

    Reconstructing surfaceScalarFields

        phi

Reconstructing point fields

No point fields

No lagrangian fields

Reconstructing sets:
Time = 236

Reconstructing FV fields

    Reconstructing volScalarFields

        p
        nut
        k
        omega

    Reconstructing volVectorFields

        U

    Reconstructing surfaceScalarFields

        phi

Reconstructing point fields

No point fields

No lagrangian fields

Reconstructing sets:
Time = 237

Reconstructing FV fields

    Reconstructing volScalarFields

        p
        nut
        k
        omega

    Reconstructing volVectorFields

        U

    Reconstructing surfaceScalarFields

        phi

Reconstructing point fields

No point fields

No lagrangian fields

Reconstructing sets:
Time = 238

Reconstructing FV fields

    Reconstructing volScalarFields

        p
        nut
        k
        omega

    Reconstructing volVectorFields

        U

    Reconstructing surfaceScalarFields

        phi

Reconstructing point fields

No point fields

No lagrangian fields

Reconstructing sets:
Time = 239

Reconstructing FV fields

    Reconstructing volScalarFields

        p
        nut
        k
        omega

    Reconstructing volVectorFields

        U

    Reconstructing surfaceScalarFields

        phi

Reconstructing point fields

No point fields

No lagrangian fields

Reconstructing sets:
Time = 240

Reconstructing FV fields

    Reconstructing volScalarFields

        p
        nut
        k
        omega

    Reconstructing volVectorFields

        U

    Reconstructing surfaceScalarFields

        phi

Reconstructing point fields

No point fields

No lagrangian fields

Reconstructing sets:
Time = 241

Reconstructing FV fields

    Reconstructing volScalarFields

        p
        nut
        k
        omega

    Reconstructing volVectorFields

        U

    Reconstructing surfaceScalarFields

        phi

Reconstructing point fields

No point fields

No lagrangian fields

Reconstructing sets:
Time = 242

Reconstructing FV fields

    Reconstructing volScalarFields

        p
        nut
        k
        omega

    Reconstructing volVectorFields

        U

    Reconstructing surfaceScalarFields

        phi

Reconstructing point fields

No point fields

No lagrangian fields

Reconstructing sets:
Time = 243

Reconstructing FV fields

    Reconstructing volScalarFields

        p
        nut
        k
        omega

    Reconstructing volVectorFields

        U

    Reconstructing surfaceScalarFields

        phi

Reconstructing point fields

No point fields

No lagrangian fields

Reconstructing sets:
Time = 244

Reconstructing FV fields

    Reconstructing volScalarFields

        p
        nut
        k
        omega

    Reconstructing volVectorFields

        U

    Reconstructing surfaceScalarFields

        phi

Reconstructing point fields

No point fields

No lagrangian fields

Reconstructing sets:
Time = 245

Reconstructing FV fields

    Reconstructing volScalarFields

        p
        nut
        k
        omega

    Reconstructing volVectorFields

        U

    Reconstructing surfaceScalarFields

        phi

Reconstructing point fields

No point fields

No lagrangian fields

Reconstructing sets:
Time = 246

Reconstructing FV fields

    Reconstructing volScalarFields

        p
        nut
        k
        omega

    Reconstructing volVectorFields

        U

    Reconstructing surfaceScalarFields

        phi

Reconstructing point fields

No point fields

No lagrangian fields

Reconstructing sets:
Time = 247

Reconstructing FV fields

    Reconstructing volScalarFields

        p
        nut
        k
        omega

    Reconstructing volVectorFields

        U

    Reconstructing surfaceScalarFields

        phi

Reconstructing point fields

No point fields

No lagrangian fields

Reconstructing sets:
Time = 248

Reconstructing FV fields

    Reconstructing volScalarFields

        p
        nut
        k
        omega

    Reconstructing volVectorFields

        U

    Reconstructing surfaceScalarFields

        phi

Reconstructing point fields

No point fields

No lagrangian fields

Reconstructing sets:
[...]
        U

    Reconstructing surfaceScalarFields

        phi

Reconstructing point fields

No point fields

No lagrangian fields

Reconstructing sets:
Time = 457

Reconstructing FV fields

    Reconstructing volScalarFields

        p
        nut
        k
        omega

    Reconstructing volVectorFields

        U

    Reconstructing surfaceScalarFields

        phi

Reconstructing point fields

No point fields

No lagrangian fields

Reconstructing sets:
Time = 458

Reconstructing FV fields

    Reconstructing volScalarFields

        p
        nut
        k
        omega

    Reconstructing volVectorFields

        U

    Reconstructing surfaceScalarFields

        phi

Reconstructing point fields

No point fields

No lagrangian fields

Reconstructing sets:
Time = 459

Reconstructing FV fields

    Reconstructing volScalarFields

        p
        nut
        k
        omega

    Reconstructing volVectorFields

        U

    Reconstructing surfaceScalarFields

        phi

Reconstructing point fields

No point fields

No lagrangian fields

Reconstructing sets:
Time = 460

Reconstructing FV fields

    Reconstructing volScalarFields

        p
        nut
        k
        omega

    Reconstructing volVectorFields

        U

    Reconstructing surfaceScalarFields

        phi

Reconstructing point fields

No point fields

No lagrangian fields

Reconstructing sets:
Time = 461

Reconstructing FV fields

    Reconstructing volScalarFields

        p
        nut
        k
        omega

    Reconstructing volVectorFields

        U

    Reconstructing surfaceScalarFields

        phi

Reconstructing point fields

No point fields

No lagrangian fields

Reconstructing sets:
Time = 462

Reconstructing FV fields

    Reconstructing volScalarFields

        p
        nut
        k
        omega

    Reconstructing volVectorFields

        U

    Reconstructing surfaceScalarFields

        phi

Reconstructing point fields

No point fields

No lagrangian fields

Reconstructing sets:
Time = 463

Reconstructing FV fields

    Reconstructing volScalarFields

        p
        nut
        k
        omega

    Reconstructing volVectorFields

        U

    Reconstructing surfaceScalarFields

        phi

Reconstructing point fields

No point fields

No lagrangian fields

Reconstructing sets:
Time = 464

Reconstructing FV fields

    Reconstructing volScalarFields

        p
        nut
        k
        omega

    Reconstructing volVectorFields

        U

    Reconstructing surfaceScalarFields

        phi

Reconstructing point fields

No point fields

No lagrangian fields

Reconstructing sets:
Time = 465

Reconstructing FV fields

    Reconstructing volScalarFields

        p
        nut
        k
        omega

    Reconstructing volVectorFields

        U

    Reconstructing surfaceScalarFields

        phi

Reconstructing point fields

No point fields

No lagrangian fields

Reconstructing sets:
Time = 466

Reconstructing FV fields

    Reconstructing volScalarFields

        p
        nut
        k
        omega

    Reconstructing volVectorFields

        U

    Reconstructing surfaceScalarFields

        phi

Reconstructing point fields

No point fields

No lagrangian fields

Reconstructing sets:
Time = 467

Reconstructing FV fields

    Reconstructing volScalarFields

        p
        nut
        k
        omega

    Reconstructing volVectorFields

        U

    Reconstructing surfaceScalarFields

        phi

Reconstructing point fields

No point fields

No lagrangian fields

Reconstructing sets:
Time = 468

Reconstructing FV fields

    Reconstructing volScalarFields

        p
        nut
        k
        omega

    Reconstructing volVectorFields

        U

    Reconstructing surfaceScalarFields

        phi

Reconstructing point fields

No point fields

No lagrangian fields

Reconstructing sets:
Time = 469

Reconstructing FV fields

    Reconstructing volScalarFields

        p
        nut
        k
        omega

    Reconstructing volVectorFields

        U

    Reconstructing surfaceScalarFields

        phi

Reconstructing point fields

No point fields

No lagrangian fields

Reconstructing sets:
Time = 470

Reconstructing FV fields

    Reconstructing volScalarFields

        p
        nut
        k
        omega

    Reconstructing volVectorFields

        U

    Reconstructing surfaceScalarFields

        phi

Reconstructing point fields

No point fields

No lagrangian fields

Reconstructing sets:
Time = 471

Reconstructing FV fields

    Reconstructing volScalarFields

        p
        nut
        k
        omega

    Reconstructing volVectorFields

        U

    Reconstructing surfaceScalarFields

        phi

Reconstructing point fields

No point fields

No lagrangian fields

Reconstructing sets:
Time = 472

Reconstructing FV fields

    Reconstructing volScalarFields

        p
        nut
        k
        omega

    Reconstructing volVectorFields

        U

    Reconstructing surfaceScalarFields

        phi

Reconstructing point fields

No point fields

No lagrangian fields

Reconstructing sets:
Time = 473

Reconstructing FV fields

    Reconstructing volScalarFields

        p
        nut
        k
        omega

    Reconstructing volVectorFields

        U

    Reconstructing surfaceScalarFields

        phi

Reconstructing point fields

No point fields

No lagrangian fields

Reconstructing sets:
Time = 474

Reconstructing FV fields

    Reconstructing volScalarFields

        p
        nut
        k
        omega

    Reconstructing volVectorFields

        U

    Reconstructing surfaceScalarFields

        phi

Reconstructing point fields

No point fields

No lagrangian fields

Reconstructing sets:
Time = 475

Reconstructing FV fields

    Reconstructing volScalarFields

        p
        nut
        k
        omega

    Reconstructing volVectorFields

        U

    Reconstructing surfaceScalarFields

        phi

Reconstructing point fields

No point fields

No lagrangian fields

Reconstructing sets:
Time = 476

Reconstructing FV fields

    Reconstructing volScalarFields

        p
        nut
        k
        omega

    Reconstructing volVectorFields

        U

    Reconstructing surfaceScalarFields

        phi

Reconstructing point fields

No point fields

No lagrangian fields

Reconstructing sets:
Time = 477

Reconstructing FV fields

    Reconstructing volScalarFields

        p
        nut
        k
        omega

    Reconstructing volVectorFields

        U

    Reconstructing surfaceScalarFields

        phi

Reconstructing point fields

No point fields

No lagrangian fields

Reconstructing sets:
Time = 478

Reconstructing FV fields

    Reconstructing volScalarFields

        p
        nut
        k
        omega

    Reconstructing volVectorFields

        U

    Reconstructing surfaceScalarFields

        phi

Reconstructing point fields

No point fields

No lagrangian fields

Reconstructing sets:
Time = 479

Reconstructing FV fields

    Reconstructing volScalarFields

        p
        nut
        k
        omega

    Reconstructing volVectorFields

        U

    Reconstructing surfaceScalarFields

        phi

Reconstructing point fields

No point fields

No lagrangian fields

Reconstructing sets:
Time = 480

Reconstructing FV fields

    Reconstructing volScalarFields

        p
        nut
        k
        omega

    Reconstructing volVectorFields

        U

    Reconstructing surfaceScalarFields

        phi

Reconstructing point fields

No point fields

No lagrangian fields

Reconstructing sets:
Time = 481

Reconstructing FV fields

    Reconstructing volScalarFields

        p
        nut
        k
        omega

    Reconstructing volVectorFields

        U

    Reconstructing surfaceScalarFields

        phi

Reconstructing point fields

No point fields

No lagrangian fields

Reconstructing sets:
Time = 482

Reconstructing FV fields

    Reconstructing volScalarFields

        p
        nut
        k
        omega

    Reconstructing volVectorFields

        U

    Reconstructing surfaceScalarFields

        phi

Reconstructing point fields

No point fields

No lagrangian fields

Reconstructing sets:
Time = 483

Reconstructing FV fields

    Reconstructing volScalarFields

        p
        nut
        k
        omega

    Reconstructing volVectorFields

        U

    Reconstructing surfaceScalarFields

        phi

Reconstructing point fields

No point fields

No lagrangian fields

Reconstructing sets:
Time = 484

Reconstructing FV fields

    Reconstructing volScalarFields

        p
        nut
        k
        omega

    Reconstructing volVectorFields

        U

    Reconstructing surfaceScalarFields

        phi

Reconstructing point fields

No point fields

No lagrangian fields

Reconstructing sets:
Time = 485

Reconstructing FV fields

    Reconstructing volScalarFields

        p
        nut
        k
        omega

    Reconstructing volVectorFields

        U

    Reconstructing surfaceScalarFields

        phi

Reconstructing point fields

No point fields

No lagrangian fields

Reconstructing sets:
Time = 486

Reconstructing FV fields

    Reconstructing volScalarFields

        p
        nut
        k
        omega

    Reconstructing volVectorFields

        U

    Reconstructing surfaceScalarFields

        phi

Reconstructing point fields

No point fields

No lagrangian fields

Reconstructing sets:
Time = 487

Reconstructing FV fields

    Reconstructing volScalarFields

        p
        nut
        k
        omega

    Reconstructing volVectorFields

        U

    Reconstructing surfaceScalarFields

        phi

Reconstructing point fields

No point fields

No lagrangian fields

Reconstructing sets:
Time = 488

Reconstructing FV fields

    Reconstructing volScalarFields

        p
        nut
        k
        omega

    Reconstructing volVectorFields

        U

    Reconstructing surfaceScalarFields

        phi

Reconstructing point fields

No point fields

No lagrangian fields

Reconstructing sets:
Time = 489

Reconstructing FV fields

    Reconstructing volScalarFields

        p
        nut
        k
        omega

    Reconstructing volVectorFields

        U

    Reconstructing surfaceScalarFields

        phi

Reconstructing point fields

No point fields

No lagrangian fields

Reconstructing sets:
Time = 490

Reconstructing FV fields

    Reconstructing volScalarFields

        p
        nut
        k
        omega

    Reconstructing volVectorFields

        U

    Reconstructing surfaceScalarFields

        phi

Reconstructing point fields

No point fields

No lagrangian fields

Reconstructing sets:
Time = 491

Reconstructing FV fields

    Reconstructing volScalarFields

        p
        nut
        k
        omega

    Reconstructing volVectorFields

        U

    Reconstructing surfaceScalarFields

        phi

Reconstructing point fields

No point fields

No lagrangian fields

Reconstructing sets:
Time = 492

Reconstructing FV fields

    Reconstructing volScalarFields

        p
        nut
        k
        omega

    Reconstructing volVectorFields

        U

    Reconstructing surfaceScalarFields

        phi

Reconstructing point fields

No point fields

No lagrangian fields

Reconstructing sets:
Time = 493

Reconstructing FV fields

    Reconstructing volScalarFields

        p
        nut
        k
        omega

    Reconstructing volVectorFields

        U

    Reconstructing surfaceScalarFields

        phi

Reconstructing point fields

No point fields

No lagrangian fields

Reconstructing sets:
Time = 494

Reconstructing FV fields

    Reconstructing volScalarFields

        p
        nut
        k
        omega

    Reconstructing volVectorFields

        U

    Reconstructing surfaceScalarFields

        phi

Reconstructing point fields

No point fields

No lagrangian fields

Reconstructing sets:
Time = 495

Reconstructing FV fields

    Reconstructing volScalarFields

        p
        nut
        k
        omega

    Reconstructing volVectorFields

        U

    Reconstructing surfaceScalarFields

        phi

Reconstructing point fields

No point fields

No lagrangian fields

Reconstructing sets:
Time = 496

Reconstructing FV fields

    Reconstructing volScalarFields

        p
        nut
        k
        omega

    Reconstructing volVectorFields

        U

    Reconstructing surfaceScalarFields

        phi

Reconstructing point fields

No point fields

No lagrangian fields

Reconstructing sets:
Time = 497

Reconstructing FV fields

    Reconstructing volScalarFields

        p
        nut
        k
        omega

    Reconstructing volVectorFields

        U

    Reconstructing surfaceScalarFields

        phi

Reconstructing point fields

No point fields

No lagrangian fields

Reconstructing sets:
Time = 498

Reconstructing FV fields

    Reconstructing volScalarFields

        p
        nut
        k
        omega

    Reconstructing volVectorFields

        U

    Reconstructing surfaceScalarFields

        phi

Reconstructing point fields

No point fields

No lagrangian fields

Reconstructing sets:
Time = 499

Reconstructing FV fields

    Reconstructing volScalarFields

        p
        nut
        k
        omega

    Reconstructing volVectorFields

        U

    Reconstructing surfaceScalarFields

        phi

Reconstructing point fields

No point fields

No lagrangian fields

Reconstructing sets:
Time = 500

Reconstructing FV fields

    Reconstructing volScalarFields

        p
        nut
        k
        omega

    Reconstructing volVectorFields

        U

    Reconstructing surfaceScalarFields

        phi

Reconstructing point fields

No point fields

No lagrangian fields

Reconstructing sets:
Time = 501

Reconstructing FV fields

    Reconstructing volScalarFields

        p
        nut
        k
        omega

    Reconstructing volVectorFields

        U

    Reconstructing surfaceScalarFields

        phi

Reconstructing point fields

No point fields

No lagrangian fields

Reconstructing sets:
Time = 502

Reconstructing FV fields

    Reconstructing volScalarFields

        p
        nut
        k
        omega

    Reconstructing volVectorFields

        U

    Reconstructing surfaceScalarFields

        phi

Reconstructing point fields

No point fields

No lagrangian fields

Reconstructing sets:
Time = 503

Reconstructing FV fields

    Reconstructing volScalarFields

        p
        nut
        k
        omega

    Reconstructing volVectorFields

        U

    Reconstructing surfaceScalarFields

        phi

Reconstructing point fields

No point fields

No lagrangian fields

Reconstructing sets:
Time = 504

Reconstructing FV fields

    Reconstructing volScalarFields

        p
        nut
        k
        omega

    Reconstructing volVectorFields

        U

    Reconstructing surfaceScalarFields

        phi

Reconstructing point fields

No point fields

No lagrangian fields

Reconstructing sets:
Time = 505

Reconstructing FV fields

    Reconstructing volScalarFields

        p
        nut
        k
        omega

    Reconstructing volVectorFields

        U

    Reconstructing surfaceScalarFields

        phi

Reconstructing point fields

No point fields

No lagrangian fields

Reconstructing sets:
Time = 506

Reconstructing FV fields

    Reconstructing volScalarFields

        p
        nut
        k
        omega

    Reconstructing volVectorFields

        U

    Reconstructing surfaceScalarFields

        phi

Reconstructing point fields

No point fields

No lagrangian fields

Reconstructing sets:
Time = 507

Reconstructing FV fields

    Reconstructing volScalarFields

        p
        nut
        k
        omega

    Reconstructing volVectorFields

        U

    Reconstructing surfaceScalarFields

        phi

Reconstructing point fields

No point fields

No lagrangian fields

Reconstructing sets:
Time = 508

Reconstructing FV fields

    Reconstructing volScalarFields

        p
        nut
        k
        omega

    Reconstructing volVectorFields

        U

    Reconstructing surfaceScalarFields

        phi

Reconstructing point fields

No point fields

No lagrangian fields

Reconstructing sets:
Time = 509

Reconstructing FV fields

    Reconstructing volScalarFields

        p
        nut
        k
        omega

    Reconstructing volVectorFields

        U

    Reconstructing surfaceScalarFields

        phi

Reconstructing point fields

No point fields

No lagrangian fields

Reconstructing sets:
Time = 510

Reconstructing FV fields

    Reconstructing volScalarFields

        p
        nut
        k
        omega

    Reconstructing volVectorFields

        U

    Reconstructing surfaceScalarFields

        phi

Reconstructing point fields

No point fields

No lagrangian fields

Reconstructing sets:
Time = 511

Reconstructing FV fields

    Reconstructing volScalarFields

        p
        nut
        k
        omega

    Reconstructing volVectorFields

        U

    Reconstructing surfaceScalarFields

        phi

Reconstructing point fields

No point fields

No lagrangian fields

Reconstructing sets:
Time = 512

Reconstructing FV fields

    Reconstructing volScalarFields

        p
        nut
        k
        omega

    Reconstructing volVectorFields

        U

    Reconstructing surfaceScalarFields

        phi

Reconstructing point fields

No point fields

No lagrangian fields

Reconstructing sets:
Time = 513

Reconstructing FV fields

    Reconstructing volScalarFields

        p
        nut
        k
        omega

    Reconstructing volVectorFields

        U

    Reconstructing surfaceScalarFields

        phi

Reconstructing point fields

No point fields

No lagrangian fields

Reconstructing sets:
Time = 514

Reconstructing FV fields

    Reconstructing volScalarFields

        p
        nut
        k
        omega

    Reconstructing volVectorFields

        U

    Reconstructing surfaceScalarFields

        phi

Reconstructing point fields

No point fields

No lagrangian fields

Reconstructing sets:
Time = 515

Reconstructing FV fields

    Reconstructing volScalarFields

        p
        nut
        k
        omega

    Reconstructing volVectorFields

        U

    Reconstructing surfaceScalarFields

        phi

Reconstructing point fields

No point fields

No lagrangian fields

Reconstructing sets:
Time = 516

Reconstructing FV fields

    Reconstructing volScalarFields

        p
        nut
        k
        omega

    Reconstructing volVectorFields

        U

    Reconstructing surfaceScalarFields

        phi

Reconstructing point fields

No point fields

No lagrangian fields

Reconstructing sets:
Time = 517

Reconstructing FV fields

    Reconstructing volScalarFields

        p
        nut
        k
        omega

    Reconstructing volVectorFields

        U

    Reconstructing surfaceScalarFields

        phi

Reconstructing point fields

No point fields

No lagrangian fields

Reconstructing sets:
Time = 518

Reconstructing FV fields

    Reconstructing volScalarFields

        p
        nut
        k
        omega

    Reconstructing volVectorFields

        U

    Reconstructing surfaceScalarFields

        phi

Reconstructing point fields

No point fields

No lagrangian fields

Reconstructing sets:
Time = 519

Reconstructing FV fields

    Reconstructing volScalarFields

        p
        nut
        k
        omega

    Reconstructing volVectorFields

        U

    Reconstructing surfaceScalarFields

        phi

Reconstructing point fields

No point fields

No lagrangian fields

Reconstructing sets:
Time = 520

Reconstructing FV fields

    Reconstructing volScalarFields

        p
        nut
        k
        omega

    Reconstructing volVectorFields

        U

    Reconstructing surfaceScalarFields

        phi

Reconstructing point fields

No point fields

No lagrangian fields

Reconstructing sets:
End.

