Running
wmakeLnInclude: linking include files to ./lnInclude
Making dependency list for source file kOmegaSSTx.C
icpc: command line warning #10121: overriding '-xAVX2' with '-xHost'
icpc: command line warning #10121: overriding '-xAVX2' with '-xHost'
rm: cannot remove ‘wallShearStress.sh’: No such file or directory
/*---------------------------------------------------------------------------*\
| =========                 |                                                 |
| \\      /  F ield         | OpenFOAM: The Open Source CFD Toolbox           |
|  \\    /   O peration     | Version:  2.4.0                                 |
|   \\  /    A nd           | Web:      www.OpenFOAM.org                      |
|    \\/     M anipulation  |                                                 |
\*---------------------------------------------------------------------------*/
Build  : 2.4.0-dcea1e13ff76
Exec   : wallShearStress -latestTime
Date   : Mar 24 2023
Time   : 13:34:18
Host   : "spartan-bm008.hpc.unimelb.edu.au"
PID    : 26590
Case   : /data/scratch/projects/punim0394/PERIODICHILL/02_Training/PH_gen100_pop100_symUK-Cf_parIs/running_pfac150_pop100_seed0/run_01203/PH_2D_RANS_kOmegaSSTx
nProcs : 1
sigFpe : Enabling floating point exception trapping (FOAM_SIGFPE).
fileModificationChecking : Monitoring run-time modified files using timeStampMaster
allowSystemOperations : Allowing user-supplied system call operations

// * * * * * * * * * * * * * * * * * * * * * * * * * * * * * * * * * * * * * //
Create time

Create mesh for time = 8225

Time = 8225
Reading field U

Reading/calculating face flux field phi

Selecting incompressible transport model Newtonian
Selecting RAS turbulence model kOmegaSSTx
kOmegaSSTxCoeffs
{
    alphaK1         0.85;
    alphaK2         1;
    alphaOmega1     0.5;
    alphaOmega2     0.856;
    gamma1          0.55555556;
    gamma2          0.44;
    beta1           0.075;
    beta2           0.0828;
    betaStar        0.09;
    a1              0.31;
    b1              1;
    c1              10;
    F3              false;
}

Writing wall shear stress to field wallShearStress

End
rm: cannot remove ‘sample.sh’: No such file or directory
rm: cannot remove ‘log.sample’: No such file or directory
